<?xml version="1.0" encoding="ISO-8859-1"?>
<febio_spec version="2.5">
	<Module type="fluid"/>
	<Control>
		<time_steps>140</time_steps>
		<step_size>0.1</step_size>
		<max_refs>10</max_refs>
		<max_ups>50</max_ups>
		<diverge_reform>0</diverge_reform>
		<reform_each_time_step>0</reform_each_time_step>
		<vtol>0.001</vtol>
		<ftol>0.001</ftol>
		<etol>0.01</etol>
		<rtol>0</rtol>
		<lstol>0.9</lstol>
		<min_residual>1e-20</min_residual>
		<rhoi>0</rhoi>
		<qnmethod>1</qnmethod>
		<time_stepper>
			<dtmin>0.01</dtmin>
			<dtmax>0.1</dtmax>
			<max_retries>5</max_retries>
			<opt_iter>9</opt_iter>
		</time_stepper>
		<analysis type="dynamic"/>
	</Control>
	<Globals>
		<Constants>
			<T>0</T>
			<R>0</R>
			<Fc>0</Fc>
		</Constants>
	</Globals>
	<Material>
		<material id="1" name="Material1" type="fluid">
			<density>1</density>
			<k>1e+09</k>
			<viscous type="Newtonian fluid">
				<mu>0.01</mu>
				<kappa>0</kappa>
			</viscous>
		</material>
	</Material>
	<Geometry>
		<Nodes name="MergedObject3">
			<node id="1"> -1.7677670e-01, -1.7677670e-01,  0.0000000e+00</node>
			<node id="2">  0.0000000e+00, -1.7677670e-01,  0.0000000e+00</node>
			<node id="3">  1.7677670e-01, -1.7677670e-01,  0.0000000e+00</node>
			<node id="4"> -1.7677670e-01,  0.0000000e+00,  0.0000000e+00</node>
			<node id="5">  0.0000000e+00,  0.0000000e+00,  0.0000000e+00</node>
			<node id="6">  1.7677670e-01,  0.0000000e+00,  0.0000000e+00</node>
			<node id="7"> -1.7677670e-01,  1.7677670e-01,  0.0000000e+00</node>
			<node id="8">  0.0000000e+00,  1.7677670e-01,  0.0000000e+00</node>
			<node id="9">  1.7677670e-01,  1.7677670e-01,  0.0000000e+00</node>
			<node id="10"> -1.7677670e-01, -1.7677670e-01,  3.0000000e+00</node>
			<node id="11">  0.0000000e+00, -1.7677670e-01,  3.0000000e+00</node>
			<node id="12">  1.7677670e-01, -1.7677670e-01,  3.0000000e+00</node>
			<node id="13"> -1.7677670e-01,  0.0000000e+00,  3.0000000e+00</node>
			<node id="14">  0.0000000e+00,  0.0000000e+00,  3.0000000e+00</node>
			<node id="15">  1.7677670e-01,  0.0000000e+00,  3.0000000e+00</node>
			<node id="16"> -1.7677670e-01,  1.7677670e-01,  3.0000000e+00</node>
			<node id="17">  0.0000000e+00,  1.7677670e-01,  3.0000000e+00</node>
			<node id="18">  1.7677670e-01,  1.7677670e-01,  3.0000000e+00</node>
			<node id="19"> -3.5355340e-01, -3.5355339e-01,  0.0000000e+00</node>
			<node id="20">  0.0000000e+00, -5.0000000e-01,  0.0000000e+00</node>
<!-- ... 6195 like lines cut -->
		</Nodes>
		<Elements type="hex8" mat="1" name="Part3">
			<elem id="1">     1,    31,   408,    79,    50,   318,  1122,   383</elem>
			<elem id="2">    31,    32,   409,   408,   318,   319,  1123,  1122</elem>
			<elem id="3">    32,    33,   410,   409,   319,   320,  1124,  1123</elem>
			<elem id="4">    33,     2,    51,   410,   320,    34,   339,  1124</elem>
			<elem id="5">    79,   408,   405,    78,   383,  1122,  1125,   382</elem>
			<elem id="6">   408,   409,   406,   405,  1122,  1123,  1126,  1125</elem>
			<elem id="7">   409,   410,   407,   406,  1123,  1124,  1127,  1126</elem>
			<elem id="8">   410,    51,    52,   407,  1124,   339,   340,  1127</elem>
			<elem id="9">    78,   405,   402,    77,   382,  1125,  1128,   381</elem>
			<elem id="10">   405,   406,   403,   402,  1125,  1126,  1129,  1128</elem>
			<elem id="11">   406,   407,   404,   403,  1126,  1127,  1130,  1129</elem>
			<elem id="12">   407,    52,    53,   404,  1127,   340,   341,  1130</elem>
			<elem id="13">    77,   402,    66,     4,   381,  1128,   362,    67</elem>
			<elem id="14">   402,   403,    65,    66,  1128,  1129,   361,   362</elem>
			<elem id="15">   403,   404,    64,    65,  1129,  1130,   360,   361</elem>
			<elem id="16">   404,    53,     5,    64,  1130,   341,    54,   360</elem>
			<elem id="17">    50,   318,  1122,   383,    49,   321,  1131,   386</elem>
			<elem id="18">   318,   319,  1123,  1122,   321,   322,  1132,  1131</elem>
			<elem id="19">   319,   320,  1124,  1123,   322,   323,  1133,  1132</elem>
			<elem id="20">   320,    34,   339,  1124,   323,    35,   342,  1133</elem>
<!-- ... 2796 like lines cut -->
		</Elements>
		<Elements type="penta6" mat="1" name="Part3__2">
			<elem id="2817">    27,  4971,  5971,   191,  4972,  5975</elem>
			<elem id="2818">    27,  5971,  5960,   191,  5975,  5964</elem>
			<elem id="2819">   191,  4972,  5975,   190,  4976,  5983</elem>
			<elem id="2820">   191,  5975,  5964,   190,  5983,  5976</elem>
			<elem id="2821">   190,  4976,  5983,   189,  4980,  5991</elem>
			<elem id="2822">   190,  5983,  5976,   189,  5991,  5984</elem>
			<elem id="2823">   189,  4980,  5991,  1887,  4984,  5999</elem>
			<elem id="2824">   189,  5991,  5984,  1887,  5999,  5992</elem>
			<elem id="2825">  1887,  4984,  5999,   210,  5116,  6007</elem>
			<elem id="2826">  1887,  5999,  5992,   210,  6007,  6000</elem>
			<elem id="2827">   210,  5116,  6007,   209,  5120,  6015</elem>
			<elem id="2828">   210,  6007,  6000,   209,  6015,  6008</elem>
			<elem id="2829">   209,  5120,  6015,   208,  5124,  6023</elem>
			<elem id="2830">   209,  6015,  6008,   208,  6023,  6016</elem>
			<elem id="2831">   208,  5124,  6023,    28,  5128,  6031</elem>
			<elem id="2832">   208,  6023,  6016,    28,  6031,  6024</elem>
			<elem id="2833">    28,  5128,  6031,   229,  5260,  6039</elem>
			<elem id="2834">    28,  6031,  6024,   229,  6039,  6032</elem>
			<elem id="2835">   229,  5260,  6039,   228,  5264,  6047</elem>
			<elem id="2836">   229,  6039,  6032,   228,  6047,  6040</elem>
<!-- ... 44 like lines cut -->
		</Elements>
		<Elements type="hex8" mat="1" name="Part45">
			<elem id="2881">    10,    43,   411,    80,  1907,  2064,  2592,  2111</elem>
			<elem id="2882">    43,    42,   412,   411,  2064,  2065,  2593,  2592</elem>
			<elem id="2883">    42,    41,   413,   412,  2065,  2066,  2594,  2593</elem>
			<elem id="2884">    41,    11,    63,   413,  2066,  1895,  2079,  2594</elem>
			<elem id="2885">    80,   411,   414,    81,  2111,  2592,  2595,  2110</elem>
			<elem id="2886">   411,   412,   415,   414,  2592,  2593,  2596,  2595</elem>
			<elem id="2887">   412,   413,   416,   415,  2593,  2594,  2597,  2596</elem>
			<elem id="2888">   413,    63,    62,   416,  2594,  2079,  2080,  2597</elem>
			<elem id="2889">    81,   414,   417,    82,  2110,  2595,  2598,  2109</elem>
			<elem id="2890">   414,   415,   418,   417,  2595,  2596,  2599,  2598</elem>
			<elem id="2891">   415,   416,   419,   418,  2596,  2597,  2600,  2599</elem>
			<elem id="2892">   416,    62,    61,   419,  2597,  2080,  2081,  2600</elem>
			<elem id="2893">    82,   417,    74,    13,  2109,  2598,  2096,  1916</elem>
			<elem id="2894">   417,   418,    75,    74,  2598,  2599,  2095,  2096</elem>
			<elem id="2895">   418,   419,    76,    75,  2599,  2600,  2094,  2095</elem>
			<elem id="2896">   419,    61,    14,    76,  2600,  2081,  1908,  2094</elem>
			<elem id="2897">  1907,  2064,  2592,  2111,  1906,  2067,  2601,  2114</elem>
			<elem id="2898">  2064,  2065,  2593,  2592,  2067,  2068,  2602,  2601</elem>
			<elem id="2899">  2065,  2066,  2594,  2593,  2068,  2069,  2603,  2602</elem>
			<elem id="2900">  2066,  1895,  2079,  2594,  2069,  1896,  2082,  2603</elem>
<!-- ... 1100 like lines cut -->
		</Elements>
		<Elements type="hex8" mat="1" name="Part4">
			<elem id="4001">  1878,  1902,  2124,  1924,  3169,  3356,  4052,  3421</elem>
			<elem id="4002">  1902,  1901,  2125,  2124,  3356,  3357,  4053,  4052</elem>
			<elem id="4003">  1901,  1900,  2126,  2125,  3357,  3358,  4054,  4053</elem>
			<elem id="4004">  1900,  1879,  1915,  2126,  3358,  3153,  3377,  4054</elem>
			<elem id="4005">  1924,  2124,  2127,  1925,  3421,  4052,  4055,  3420</elem>
			<elem id="4006">  2124,  2125,  2128,  2127,  4052,  4053,  4056,  4055</elem>
			<elem id="4007">  2125,  2126,  2129,  2128,  4053,  4054,  4057,  4056</elem>
			<elem id="4008">  2126,  1915,  1914,  2129,  4054,  3377,  3378,  4057</elem>
			<elem id="4009">  1925,  2127,  2130,  1926,  3420,  4055,  4058,  3419</elem>
			<elem id="4010">  2127,  2128,  2131,  2130,  4055,  4056,  4059,  4058</elem>
			<elem id="4011">  2128,  2129,  2132,  2131,  4056,  4057,  4060,  4059</elem>
			<elem id="4012">  2129,  1914,  1913,  2132,  4057,  3378,  3379,  4060</elem>
			<elem id="4013">  1926,  2130,  1921,  1881,  3419,  4058,  3400,  3180</elem>
			<elem id="4014">  2130,  2131,  1922,  1921,  4058,  4059,  3399,  3400</elem>
			<elem id="4015">  2131,  2132,  1923,  1922,  4059,  4060,  3398,  3399</elem>
			<elem id="4016">  2132,  1913,  1882,  1923,  4060,  3379,  3170,  3398</elem>
			<elem id="4017">  3169,  3356,  4052,  3421,  3168,  3359,  4061,  3424</elem>
			<elem id="4018">  3356,  3357,  4053,  4052,  3359,  3360,  4062,  4061</elem>
			<elem id="4019">  3357,  3358,  4054,  4053,  3360,  3361,  4063,  4062</elem>
			<elem id="4020">  3358,  3153,  3377,  4054,  3361,  3154,  3380,  4063</elem>
<!-- ... 1516 like lines cut -->
		</Elements>
		<NodeSet name="FixedFluidVelocity1">
			<node id="19"/>
			<node id="20"/>
			<node id="21"/>
			<node id="22"/>
			<node id="23"/>
			<node id="24"/>
			<node id="25"/>
			<node id="26"/>
			<node id="27"/>
			<node id="28"/>
			<node id="29"/>
			<node id="30"/>
			<node id="169"/>
			<node id="170"/>
			<node id="171"/>
			<node id="172"/>
			<node id="173"/>
			<node id="174"/>
			<node id="175"/>
			<node id="179"/>
<!-- ... 2572 like lines cut -->
		</NodeSet>
		<NodeSet name="FixedFluidDilatation1">
			<node id="3132"/>
			<node id="3133"/>
			<node id="3134"/>
			<node id="3135"/>
			<node id="3136"/>
			<node id="3137"/>
			<node id="3138"/>
			<node id="3139"/>
			<node id="3140"/>
			<node id="3145"/>
			<node id="3146"/>
			<node id="3147"/>
			<node id="3148"/>
			<node id="3149"/>
			<node id="3150"/>
			<node id="3151"/>
			<node id="3152"/>
			<node id="3160"/>
			<node id="3161"/>
			<node id="3162"/>
<!-- ... 189 like lines cut -->
		</NodeSet>
		<Surface name="FluidNormalVelocity1">
			<quad4 id="1">    79,   408,    31,     1</quad4>
			<quad4 id="2">   408,   409,    32,    31</quad4>
			<quad4 id="3">   409,   410,    33,    32</quad4>
			<quad4 id="4">   410,    51,     2,    33</quad4>
			<quad4 id="5">    78,   405,   408,    79</quad4>
			<quad4 id="6">   405,   406,   409,   408</quad4>
			<quad4 id="7">   406,   407,   410,   409</quad4>
			<quad4 id="8">   407,    52,    51,   410</quad4>
			<quad4 id="9">    77,   402,   405,    78</quad4>
			<quad4 id="10">   402,   403,   406,   405</quad4>
			<quad4 id="11">   403,   404,   407,   406</quad4>
			<quad4 id="12">   404,    53,    52,   407</quad4>
			<quad4 id="13">     4,    66,   402,    77</quad4>
			<quad4 id="14">    66,    65,   403,   402</quad4>
			<quad4 id="15">    65,    64,   404,   403</quad4>
			<quad4 id="16">    64,     5,    53,   404</quad4>
			<quad4 id="17">    51,   489,    83,     2</quad4>
			<quad4 id="18">   489,   490,    84,    83</quad4>
			<quad4 id="19">   490,   491,    85,    84</quad4>
			<quad4 id="20">   491,    96,     3,    85</quad4>
<!-- ... 300 like lines cut -->
		</Surface>
		<Surface name="FluidBackflowStabilization1">
			<quad4 id="1">  3132,  3162,  3440,  3190</quad4>
			<quad4 id="2">  3162,  3161,  3441,  3440</quad4>
			<quad4 id="3">  3161,  3160,  3442,  3441</quad4>
			<quad4 id="4">  3160,  3133,  3179,  3442</quad4>
			<quad4 id="5">  3190,  3440,  3443,  3191</quad4>
			<quad4 id="6">  3440,  3441,  3444,  3443</quad4>
			<quad4 id="7">  3441,  3442,  3445,  3444</quad4>
			<quad4 id="8">  3442,  3179,  3178,  3445</quad4>
			<quad4 id="9">  3191,  3443,  3446,  3192</quad4>
			<quad4 id="10">  3443,  3444,  3447,  3446</quad4>
			<quad4 id="11">  3444,  3445,  3448,  3447</quad4>
			<quad4 id="12">  3445,  3178,  3177,  3448</quad4>
			<quad4 id="13">  3192,  3446,  3187,  3135</quad4>
			<quad4 id="14">  3446,  3447,  3188,  3187</quad4>
			<quad4 id="15">  3447,  3448,  3189,  3188</quad4>
			<quad4 id="16">  3448,  3177,  3136,  3189</quad4>
			<quad4 id="17">  3133,  3202,  3512,  3179</quad4>
			<quad4 id="18">  3202,  3201,  3513,  3512</quad4>
			<quad4 id="19">  3201,  3200,  3514,  3513</quad4>
			<quad4 id="20">  3200,  3134,  3212,  3514</quad4>
<!-- ... 172 like lines cut -->
		</Surface>
		<Surface name="FluidTangentialStabilization1">
			<quad4 id="1">  3132,  3162,  3440,  3190</quad4>
			<quad4 id="2">  3162,  3161,  3441,  3440</quad4>
			<quad4 id="3">  3161,  3160,  3442,  3441</quad4>
			<quad4 id="4">  3160,  3133,  3179,  3442</quad4>
			<quad4 id="5">  3190,  3440,  3443,  3191</quad4>
			<quad4 id="6">  3440,  3441,  3444,  3443</quad4>
			<quad4 id="7">  3441,  3442,  3445,  3444</quad4>
			<quad4 id="8">  3442,  3179,  3178,  3445</quad4>
			<quad4 id="9">  3191,  3443,  3446,  3192</quad4>
			<quad4 id="10">  3443,  3444,  3447,  3446</quad4>
			<quad4 id="11">  3444,  3445,  3448,  3447</quad4>
			<quad4 id="12">  3445,  3178,  3177,  3448</quad4>
			<quad4 id="13">  3192,  3446,  3187,  3135</quad4>
			<quad4 id="14">  3446,  3447,  3188,  3187</quad4>
			<quad4 id="15">  3447,  3448,  3189,  3188</quad4>
			<quad4 id="16">  3448,  3177,  3136,  3189</quad4>
			<quad4 id="17">  3133,  3202,  3512,  3179</quad4>
			<quad4 id="18">  3202,  3201,  3513,  3512</quad4>
			<quad4 id="19">  3201,  3200,  3514,  3513</quad4>
			<quad4 id="20">  3200,  3134,  3212,  3514</quad4>
<!-- ... 172 like lines cut -->
		</Surface>
	</Geometry>
	<Boundary>
		<fix bc="wx,wy" node_set="FixedFluidVelocity1"/>
		<fix bc="ef" node_set="FixedFluidDilatation1"/>
	</Boundary>
	<Loads>
		<surface_load type="fluid normal velocity" surface="FluidNormalVelocity1">
			<velocity lc="1">1</velocity>
			<prescribe_nodal_velocities>0</prescribe_nodal_velocities>
			<parabolic>1</parabolic>
		</surface_load>
		<surface_load type="fluid backflow stabilization" surface="FluidBackflowStabilization1">
			<beta lc="2">1</beta>
		</surface_load>
		<surface_load type="fluid tangential stabilization" surface="FluidTangentialStabilization1">
			<beta lc="3">1</beta>
		</surface_load>
	</Loads>
	<LoadData>
		<loadcurve id="1" type="smooth">
			<point>0,0</point>
			<point>1,1</point>
		</loadcurve>
		<loadcurve id="2" type="smooth">
			<point>0,0</point>
			<point>1,1</point>
		</loadcurve>
		<loadcurve id="3" type="smooth">
			<point>0,0</point>
			<point>1,1</point>
		</loadcurve>
	</LoadData>
	<Output>
		<plotfile type="febio">
			<var type="displacement"/>
			<var type="fluid acceleration"/>
			<var type="fluid dilatation"/>
			<var type="fluid pressure"/>
			<var type="fluid rate of deformation"/>
			<var type="fluid stress"/>
			<var type="fluid velocity"/>
			<var type="fluid volume ratio"/>
			<var type="fluid vorticity"/>
			<var type="nodal fluid velocity"/>
		</plotfile>
	</Output>
</febio_spec>
